1536
Alkane chain with 512 carbons
C 0.00 0.00 0.00
C 1.54 0.00 0.00
C 3.08 0.00 0.00
C 4.62 0.00 0.00
C 6.16 0.00 0.00
C 7.70 0.00 0.00
C 9.24 0.00 0.00
C 10.78 0.00 0.00
C 12.32 0.00 0.00
C 13.86 0.00 0.00
C 15.40 0.00 0.00
C 16.94 0.00 0.00
C 18.48 0.00 0.00
C 20.02 0.00 0.00
C 21.56 0.00 0.00
C 23.10 0.00 0.00
C 24.64 0.00 0.00
C 26.18 0.00 0.00
C 27.72 0.00 0.00
C 29.26 0.00 0.00
C 30.80 0.00 0.00
C 32.34 0.00 0.00
C 33.88 0.00 0.00
C 35.42 0.00 0.00
C 36.96 0.00 0.00
C 38.50 0.00 0.00
C 40.04 0.00 0.00
C 41.58 0.00 0.00
C 43.12 0.00 0.00
C 44.66 0.00 0.00
C 46.20 0.00 0.00
C 47.74 0.00 0.00
C 49.28 0.00 0.00
C 50.82 0.00 0.00
C 52.36 0.00 0.00
C 53.90 0.00 0.00
C 55.44 0.00 0.00
C 56.98 0.00 0.00
C 58.52 0.00 0.00
C 60.06 0.00 0.00
C 61.60 0.00 0.00
C 63.14 0.00 0.00
C 64.68 0.00 0.00
C 66.22 0.00 0.00
C 67.76 0.00 0.00
C 69.30 0.00 0.00
C 70.84 0.00 0.00
C 72.38 0.00 0.00
C 73.92 0.00 0.00
C 75.46 0.00 0.00
C 77.00 0.00 0.00
C 78.54 0.00 0.00
C 80.08 0.00 0.00
C 81.62 0.00 0.00
C 83.16 0.00 0.00
C 84.70 0.00 0.00
C 86.24 0.00 0.00
C 87.78 0.00 0.00
C 89.32 0.00 0.00
C 90.86 0.00 0.00
C 92.40 0.00 0.00
C 93.94 0.00 0.00
C 95.48 0.00 0.00
C 97.02 0.00 0.00
C 98.56 0.00 0.00
C 100.10 0.00 0.00
C 101.64 0.00 0.00
C 103.18 0.00 0.00
C 104.72 0.00 0.00
C 106.26 0.00 0.00
C 107.80 0.00 0.00
C 109.34 0.00 0.00
C 110.88 0.00 0.00
C 112.42 0.00 0.00
C 113.96 0.00 0.00
C 115.50 0.00 0.00
C 117.04 0.00 0.00
C 118.58 0.00 0.00
C 120.12 0.00 0.00
C 121.66 0.00 0.00
C 123.20 0.00 0.00
C 124.74 0.00 0.00
C 126.28 0.00 0.00
C 127.82 0.00 0.00
C 129.36 0.00 0.00
C 130.90 0.00 0.00
C 132.44 0.00 0.00
C 133.98 0.00 0.00
C 135.52 0.00 0.00
C 137.06 0.00 0.00
C 138.60 0.00 0.00
C 140.14 0.00 0.00
C 141.68 0.00 0.00
C 143.22 0.00 0.00
C 144.76 0.00 0.00
C 146.30 0.00 0.00
C 147.84 0.00 0.00
C 149.38 0.00 0.00
C 150.92 0.00 0.00
C 152.46 0.00 0.00
C 154.00 0.00 0.00
C 155.54 0.00 0.00
C 157.08 0.00 0.00
C 158.62 0.00 0.00
C 160.16 0.00 0.00
C 161.70 0.00 0.00
C 163.24 0.00 0.00
C 164.78 0.00 0.00
C 166.32 0.00 0.00
C 167.86 0.00 0.00
C 169.40 0.00 0.00
C 170.94 0.00 0.00
C 172.48 0.00 0.00
C 174.02 0.00 0.00
C 175.56 0.00 0.00
C 177.10 0.00 0.00
C 178.64 0.00 0.00
C 180.18 0.00 0.00
C 181.72 0.00 0.00
C 183.26 0.00 0.00
C 184.80 0.00 0.00
C 186.34 0.00 0.00
C 187.88 0.00 0.00
C 189.42 0.00 0.00
C 190.96 0.00 0.00
C 192.50 0.00 0.00
C 194.04 0.00 0.00
C 195.58 0.00 0.00
C 197.12 0.00 0.00
C 198.66 0.00 0.00
C 200.20 0.00 0.00
C 201.74 0.00 0.00
C 203.28 0.00 0.00
C 204.82 0.00 0.00
C 206.36 0.00 0.00
C 207.90 0.00 0.00
C 209.44 0.00 0.00
C 210.98 0.00 0.00
C 212.52 0.00 0.00
C 214.06 0.00 0.00
C 215.60 0.00 0.00
C 217.14 0.00 0.00
C 218.68 0.00 0.00
C 220.22 0.00 0.00
C 221.76 0.00 0.00
C 223.30 0.00 0.00
C 224.84 0.00 0.00
C 226.38 0.00 0.00
C 227.92 0.00 0.00
C 229.46 0.00 0.00
C 231.00 0.00 0.00
C 232.54 0.00 0.00
C 234.08 0.00 0.00
C 235.62 0.00 0.00
C 237.16 0.00 0.00
C 238.70 0.00 0.00
C 240.24 0.00 0.00
C 241.78 0.00 0.00
C 243.32 0.00 0.00
C 244.86 0.00 0.00
C 246.40 0.00 0.00
C 247.94 0.00 0.00
C 249.48 0.00 0.00
C 251.02 0.00 0.00
C 252.56 0.00 0.00
C 254.10 0.00 0.00
C 255.64 0.00 0.00
C 257.18 0.00 0.00
C 258.72 0.00 0.00
C 260.26 0.00 0.00
C 261.80 0.00 0.00
C 263.34 0.00 0.00
C 264.88 0.00 0.00
C 266.42 0.00 0.00
C 267.96 0.00 0.00
C 269.50 0.00 0.00
C 271.04 0.00 0.00
C 272.58 0.00 0.00
C 274.12 0.00 0.00
C 275.66 0.00 0.00
C 277.20 0.00 0.00
C 278.74 0.00 0.00
C 280.28 0.00 0.00
C 281.82 0.00 0.00
C 283.36 0.00 0.00
C 284.90 0.00 0.00
C 286.44 0.00 0.00
C 287.98 0.00 0.00
C 289.52 0.00 0.00
C 291.06 0.00 0.00
C 292.60 0.00 0.00
C 294.14 0.00 0.00
C 295.68 0.00 0.00
C 297.22 0.00 0.00
C 298.76 0.00 0.00
C 300.30 0.00 0.00
C 301.84 0.00 0.00
C 303.38 0.00 0.00
C 304.92 0.00 0.00
C 306.46 0.00 0.00
C 308.00 0.00 0.00
C 309.54 0.00 0.00
C 311.08 0.00 0.00
C 312.62 0.00 0.00
C 314.16 0.00 0.00
C 315.70 0.00 0.00
C 317.24 0.00 0.00
C 318.78 0.00 0.00
C 320.32 0.00 0.00
C 321.86 0.00 0.00
C 323.40 0.00 0.00
C 324.94 0.00 0.00
C 326.48 0.00 0.00
C 328.02 0.00 0.00
C 329.56 0.00 0.00
C 331.10 0.00 0.00
C 332.64 0.00 0.00
C 334.18 0.00 0.00
C 335.72 0.00 0.00
C 337.26 0.00 0.00
C 338.80 0.00 0.00
C 340.34 0.00 0.00
C 341.88 0.00 0.00
C 343.42 0.00 0.00
C 344.96 0.00 0.00
C 346.50 0.00 0.00
C 348.04 0.00 0.00
C 349.58 0.00 0.00
C 351.12 0.00 0.00
C 352.66 0.00 0.00
C 354.20 0.00 0.00
C 355.74 0.00 0.00
C 357.28 0.00 0.00
C 358.82 0.00 0.00
C 360.36 0.00 0.00
C 361.90 0.00 0.00
C 363.44 0.00 0.00
C 364.98 0.00 0.00
C 366.52 0.00 0.00
C 368.06 0.00 0.00
C 369.60 0.00 0.00
C 371.14 0.00 0.00
C 372.68 0.00 0.00
C 374.22 0.00 0.00
C 375.76 0.00 0.00
C 377.30 0.00 0.00
C 378.84 0.00 0.00
C 380.38 0.00 0.00
C 381.92 0.00 0.00
C 383.46 0.00 0.00
C 385.00 0.00 0.00
C 386.54 0.00 0.00
C 388.08 0.00 0.00
C 389.62 0.00 0.00
C 391.16 0.00 0.00
C 392.70 0.00 0.00
C 394.24 0.00 0.00
C 395.78 0.00 0.00
C 397.32 0.00 0.00
C 398.86 0.00 0.00
C 400.40 0.00 0.00
C 401.94 0.00 0.00
C 403.48 0.00 0.00
C 405.02 0.00 0.00
C 406.56 0.00 0.00
C 408.10 0.00 0.00
C 409.64 0.00 0.00
C 411.18 0.00 0.00
C 412.72 0.00 0.00
C 414.26 0.00 0.00
C 415.80 0.00 0.00
C 417.34 0.00 0.00
C 418.88 0.00 0.00
C 420.42 0.00 0.00
C 421.96 0.00 0.00
C 423.50 0.00 0.00
C 425.04 0.00 0.00
C 426.58 0.00 0.00
C 428.12 0.00 0.00
C 429.66 0.00 0.00
C 431.20 0.00 0.00
C 432.74 0.00 0.00
C 434.28 0.00 0.00
C 435.82 0.00 0.00
C 437.36 0.00 0.00
C 438.90 0.00 0.00
C 440.44 0.00 0.00
C 441.98 0.00 0.00
C 443.52 0.00 0.00
C 445.06 0.00 0.00
C 446.60 0.00 0.00
C 448.14 0.00 0.00
C 449.68 0.00 0.00
C 451.22 0.00 0.00
C 452.76 0.00 0.00
C 454.30 0.00 0.00
C 455.84 0.00 0.00
C 457.38 0.00 0.00
C 458.92 0.00 0.00
C 460.46 0.00 0.00
C 462.00 0.00 0.00
C 463.54 0.00 0.00
C 465.08 0.00 0.00
C 466.62 0.00 0.00
C 468.16 0.00 0.00
C 469.70 0.00 0.00
C 471.24 0.00 0.00
C 472.78 0.00 0.00
C 474.32 0.00 0.00
C 475.86 0.00 0.00
C 477.40 0.00 0.00
C 478.94 0.00 0.00
C 480.48 0.00 0.00
C 482.02 0.00 0.00
C 483.56 0.00 0.00
C 485.10 0.00 0.00
C 486.64 0.00 0.00
C 488.18 0.00 0.00
C 489.72 0.00 0.00
C 491.26 0.00 0.00
C 492.80 0.00 0.00
C 494.34 0.00 0.00
C 495.88 0.00 0.00
C 497.42 0.00 0.00
C 498.96 0.00 0.00
C 500.50 0.00 0.00
C 502.04 0.00 0.00
C 503.58 0.00 0.00
C 505.12 0.00 0.00
C 506.66 0.00 0.00
C 508.20 0.00 0.00
C 509.74 0.00 0.00
C 511.28 0.00 0.00
C 512.82 0.00 0.00
C 514.36 0.00 0.00
C 515.90 0.00 0.00
C 517.44 0.00 0.00
C 518.98 0.00 0.00
C 520.52 0.00 0.00
C 522.06 0.00 0.00
C 523.60 0.00 0.00
C 525.14 0.00 0.00
C 526.68 0.00 0.00
C 528.22 0.00 0.00
C 529.76 0.00 0.00
C 531.30 0.00 0.00
C 532.84 0.00 0.00
C 534.38 0.00 0.00
C 535.92 0.00 0.00
C 537.46 0.00 0.00
C 539.00 0.00 0.00
C 540.54 0.00 0.00
C 542.08 0.00 0.00
C 543.62 0.00 0.00
C 545.16 0.00 0.00
C 546.70 0.00 0.00
C 548.24 0.00 0.00
C 549.78 0.00 0.00
C 551.32 0.00 0.00
C 552.86 0.00 0.00
C 554.40 0.00 0.00
C 555.94 0.00 0.00
C 557.48 0.00 0.00
C 559.02 0.00 0.00
C 560.56 0.00 0.00
C 562.10 0.00 0.00
C 563.64 0.00 0.00
C 565.18 0.00 0.00
C 566.72 0.00 0.00
C 568.26 0.00 0.00
C 569.80 0.00 0.00
C 571.34 0.00 0.00
C 572.88 0.00 0.00
C 574.42 0.00 0.00
C 575.96 0.00 0.00
C 577.50 0.00 0.00
C 579.04 0.00 0.00
C 580.58 0.00 0.00
C 582.12 0.00 0.00
C 583.66 0.00 0.00
C 585.20 0.00 0.00
C 586.74 0.00 0.00
C 588.28 0.00 0.00
C 589.82 0.00 0.00
C 591.36 0.00 0.00
C 592.90 0.00 0.00
C 594.44 0.00 0.00
C 595.98 0.00 0.00
C 597.52 0.00 0.00
C 599.06 0.00 0.00
C 600.60 0.00 0.00
C 602.14 0.00 0.00
C 603.68 0.00 0.00
C 605.22 0.00 0.00
C 606.76 0.00 0.00
C 608.30 0.00 0.00
C 609.84 0.00 0.00
C 611.38 0.00 0.00
C 612.92 0.00 0.00
C 614.46 0.00 0.00
C 616.00 0.00 0.00
C 617.54 0.00 0.00
C 619.08 0.00 0.00
C 620.62 0.00 0.00
C 622.16 0.00 0.00
C 623.70 0.00 0.00
C 625.24 0.00 0.00
C 626.78 0.00 0.00
C 628.32 0.00 0.00
C 629.86 0.00 0.00
C 631.40 0.00 0.00
C 632.94 0.00 0.00
C 634.48 0.00 0.00
C 636.02 0.00 0.00
C 637.56 0.00 0.00
C 639.10 0.00 0.00
C 640.64 0.00 0.00
C 642.18 0.00 0.00
C 643.72 0.00 0.00
C 645.26 0.00 0.00
C 646.80 0.00 0.00
C 648.34 0.00 0.00
C 649.88 0.00 0.00
C 651.42 0.00 0.00
C 652.96 0.00 0.00
C 654.50 0.00 0.00
C 656.04 0.00 0.00
C 657.58 0.00 0.00
C 659.12 0.00 0.00
C 660.66 0.00 0.00
C 662.20 0.00 0.00
C 663.74 0.00 0.00
C 665.28 0.00 0.00
C 666.82 0.00 0.00
C 668.36 0.00 0.00
C 669.90 0.00 0.00
C 671.44 0.00 0.00
C 672.98 0.00 0.00
C 674.52 0.00 0.00
C 676.06 0.00 0.00
C 677.60 0.00 0.00
C 679.14 0.00 0.00
C 680.68 0.00 0.00
C 682.22 0.00 0.00
C 683.76 0.00 0.00
C 685.30 0.00 0.00
C 686.84 0.00 0.00
C 688.38 0.00 0.00
C 689.92 0.00 0.00
C 691.46 0.00 0.00
C 693.00 0.00 0.00
C 694.54 0.00 0.00
C 696.08 0.00 0.00
C 697.62 0.00 0.00
C 699.16 0.00 0.00
C 700.70 0.00 0.00
C 702.24 0.00 0.00
C 703.78 0.00 0.00
C 705.32 0.00 0.00
C 706.86 0.00 0.00
C 708.40 0.00 0.00
C 709.94 0.00 0.00
C 711.48 0.00 0.00
C 713.02 0.00 0.00
C 714.56 0.00 0.00
C 716.10 0.00 0.00
C 717.64 0.00 0.00
C 719.18 0.00 0.00
C 720.72 0.00 0.00
C 722.26 0.00 0.00
C 723.80 0.00 0.00
C 725.34 0.00 0.00
C 726.88 0.00 0.00
C 728.42 0.00 0.00
C 729.96 0.00 0.00
C 731.50 0.00 0.00
C 733.04 0.00 0.00
C 734.58 0.00 0.00
C 736.12 0.00 0.00
C 737.66 0.00 0.00
C 739.20 0.00 0.00
C 740.74 0.00 0.00
C 742.28 0.00 0.00
C 743.82 0.00 0.00
C 745.36 0.00 0.00
C 746.90 0.00 0.00
C 748.44 0.00 0.00
C 749.98 0.00 0.00
C 751.52 0.00 0.00
C 753.06 0.00 0.00
C 754.60 0.00 0.00
C 756.14 0.00 0.00
C 757.68 0.00 0.00
C 759.22 0.00 0.00
C 760.76 0.00 0.00
C 762.30 0.00 0.00
C 763.84 0.00 0.00
C 765.38 0.00 0.00
C 766.92 0.00 0.00
C 768.46 0.00 0.00
C 770.00 0.00 0.00
C 771.54 0.00 0.00
C 773.08 0.00 0.00
C 774.62 0.00 0.00
C 776.16 0.00 0.00
C 777.70 0.00 0.00
C 779.24 0.00 0.00
C 780.78 0.00 0.00
C 782.32 0.00 0.00
C 783.86 0.00 0.00
C 785.40 0.00 0.00
C 786.94 0.00 0.00
H -0.77 0.77 0.00
H -0.77 -0.77 0.00
H 1.54 0.77 0.00
H 1.54 -0.77 0.00
H 3.08 0.77 0.00
H 3.08 -0.77 0.00
H 4.62 0.77 0.00
H 4.62 -0.77 0.00
H 6.16 0.77 0.00
H 6.16 -0.77 0.00
H 7.70 0.77 0.00
H 7.70 -0.77 0.00
H 9.24 0.77 0.00
H 9.24 -0.77 0.00
H 10.78 0.77 0.00
H 10.78 -0.77 0.00
H 12.32 0.77 0.00
H 12.32 -0.77 0.00
H 13.86 0.77 0.00
H 13.86 -0.77 0.00
H 15.40 0.77 0.00
H 15.40 -0.77 0.00
H 16.94 0.77 0.00
H 16.94 -0.77 0.00
H 18.48 0.77 0.00
H 18.48 -0.77 0.00
H 20.02 0.77 0.00
H 20.02 -0.77 0.00
H 21.56 0.77 0.00
H 21.56 -0.77 0.00
H 23.10 0.77 0.00
H 23.10 -0.77 0.00
H 24.64 0.77 0.00
H 24.64 -0.77 0.00
H 26.18 0.77 0.00
H 26.18 -0.77 0.00
H 27.72 0.77 0.00
H 27.72 -0.77 0.00
H 29.26 0.77 0.00
H 29.26 -0.77 0.00
H 30.80 0.77 0.00
H 30.80 -0.77 0.00
H 32.34 0.77 0.00
H 32.34 -0.77 0.00
H 33.88 0.77 0.00
H 33.88 -0.77 0.00
H 35.42 0.77 0.00
H 35.42 -0.77 0.00
H 36.96 0.77 0.00
H 36.96 -0.77 0.00
H 38.50 0.77 0.00
H 38.50 -0.77 0.00
H 40.04 0.77 0.00
H 40.04 -0.77 0.00
H 41.58 0.77 0.00
H 41.58 -0.77 0.00
H 43.12 0.77 0.00
H 43.12 -0.77 0.00
H 44.66 0.77 0.00
H 44.66 -0.77 0.00
H 46.20 0.77 0.00
H 46.20 -0.77 0.00
H 47.74 0.77 0.00
H 47.74 -0.77 0.00
H 49.28 0.77 0.00
H 49.28 -0.77 0.00
H 50.82 0.77 0.00
H 50.82 -0.77 0.00
H 52.36 0.77 0.00
H 52.36 -0.77 0.00
H 53.90 0.77 0.00
H 53.90 -0.77 0.00
H 55.44 0.77 0.00
H 55.44 -0.77 0.00
H 56.98 0.77 0.00
H 56.98 -0.77 0.00
H 58.52 0.77 0.00
H 58.52 -0.77 0.00
H 60.06 0.77 0.00
H 60.06 -0.77 0.00
H 61.60 0.77 0.00
H 61.60 -0.77 0.00
H 63.14 0.77 0.00
H 63.14 -0.77 0.00
H 64.68 0.77 0.00
H 64.68 -0.77 0.00
H 66.22 0.77 0.00
H 66.22 -0.77 0.00
H 67.76 0.77 0.00
H 67.76 -0.77 0.00
H 69.30 0.77 0.00
H 69.30 -0.77 0.00
H 70.84 0.77 0.00
H 70.84 -0.77 0.00
H 72.38 0.77 0.00
H 72.38 -0.77 0.00
H 73.92 0.77 0.00
H 73.92 -0.77 0.00
H 75.46 0.77 0.00
H 75.46 -0.77 0.00
H 77.00 0.77 0.00
H 77.00 -0.77 0.00
H 78.54 0.77 0.00
H 78.54 -0.77 0.00
H 80.08 0.77 0.00
H 80.08 -0.77 0.00
H 81.62 0.77 0.00
H 81.62 -0.77 0.00
H 83.16 0.77 0.00
H 83.16 -0.77 0.00
H 84.70 0.77 0.00
H 84.70 -0.77 0.00
H 86.24 0.77 0.00
H 86.24 -0.77 0.00
H 87.78 0.77 0.00
H 87.78 -0.77 0.00
H 89.32 0.77 0.00
H 89.32 -0.77 0.00
H 90.86 0.77 0.00
H 90.86 -0.77 0.00
H 92.40 0.77 0.00
H 92.40 -0.77 0.00
H 93.94 0.77 0.00
H 93.94 -0.77 0.00
H 95.48 0.77 0.00
H 95.48 -0.77 0.00
H 97.02 0.77 0.00
H 97.02 -0.77 0.00
H 98.56 0.77 0.00
H 98.56 -0.77 0.00
H 100.10 0.77 0.00
H 100.10 -0.77 0.00
H 101.64 0.77 0.00
H 101.64 -0.77 0.00
H 103.18 0.77 0.00
H 103.18 -0.77 0.00
H 104.72 0.77 0.00
H 104.72 -0.77 0.00
H 106.26 0.77 0.00
H 106.26 -0.77 0.00
H 107.80 0.77 0.00
H 107.80 -0.77 0.00
H 109.34 0.77 0.00
H 109.34 -0.77 0.00
H 110.88 0.77 0.00
H 110.88 -0.77 0.00
H 112.42 0.77 0.00
H 112.42 -0.77 0.00
H 113.96 0.77 0.00
H 113.96 -0.77 0.00
H 115.50 0.77 0.00
H 115.50 -0.77 0.00
H 117.04 0.77 0.00
H 117.04 -0.77 0.00
H 118.58 0.77 0.00
H 118.58 -0.77 0.00
H 120.12 0.77 0.00
H 120.12 -0.77 0.00
H 121.66 0.77 0.00
H 121.66 -0.77 0.00
H 123.20 0.77 0.00
H 123.20 -0.77 0.00
H 124.74 0.77 0.00
H 124.74 -0.77 0.00
H 126.28 0.77 0.00
H 126.28 -0.77 0.00
H 127.82 0.77 0.00
H 127.82 -0.77 0.00
H 129.36 0.77 0.00
H 129.36 -0.77 0.00
H 130.90 0.77 0.00
H 130.90 -0.77 0.00
H 132.44 0.77 0.00
H 132.44 -0.77 0.00
H 133.98 0.77 0.00
H 133.98 -0.77 0.00
H 135.52 0.77 0.00
H 135.52 -0.77 0.00
H 137.06 0.77 0.00
H 137.06 -0.77 0.00
H 138.60 0.77 0.00
H 138.60 -0.77 0.00
H 140.14 0.77 0.00
H 140.14 -0.77 0.00
H 141.68 0.77 0.00
H 141.68 -0.77 0.00
H 143.22 0.77 0.00
H 143.22 -0.77 0.00
H 144.76 0.77 0.00
H 144.76 -0.77 0.00
H 146.30 0.77 0.00
H 146.30 -0.77 0.00
H 147.84 0.77 0.00
H 147.84 -0.77 0.00
H 149.38 0.77 0.00
H 149.38 -0.77 0.00
H 150.92 0.77 0.00
H 150.92 -0.77 0.00
H 152.46 0.77 0.00
H 152.46 -0.77 0.00
H 154.00 0.77 0.00
H 154.00 -0.77 0.00
H 155.54 0.77 0.00
H 155.54 -0.77 0.00
H 157.08 0.77 0.00
H 157.08 -0.77 0.00
H 158.62 0.77 0.00
H 158.62 -0.77 0.00
H 160.16 0.77 0.00
H 160.16 -0.77 0.00
H 161.70 0.77 0.00
H 161.70 -0.77 0.00
H 163.24 0.77 0.00
H 163.24 -0.77 0.00
H 164.78 0.77 0.00
H 164.78 -0.77 0.00
H 166.32 0.77 0.00
H 166.32 -0.77 0.00
H 167.86 0.77 0.00
H 167.86 -0.77 0.00
H 169.40 0.77 0.00
H 169.40 -0.77 0.00
H 170.94 0.77 0.00
H 170.94 -0.77 0.00
H 172.48 0.77 0.00
H 172.48 -0.77 0.00
H 174.02 0.77 0.00
H 174.02 -0.77 0.00
H 175.56 0.77 0.00
H 175.56 -0.77 0.00
H 177.10 0.77 0.00
H 177.10 -0.77 0.00
H 178.64 0.77 0.00
H 178.64 -0.77 0.00
H 180.18 0.77 0.00
H 180.18 -0.77 0.00
H 181.72 0.77 0.00
H 181.72 -0.77 0.00
H 183.26 0.77 0.00
H 183.26 -0.77 0.00
H 184.80 0.77 0.00
H 184.80 -0.77 0.00
H 186.34 0.77 0.00
H 186.34 -0.77 0.00
H 187.88 0.77 0.00
H 187.88 -0.77 0.00
H 189.42 0.77 0.00
H 189.42 -0.77 0.00
H 190.96 0.77 0.00
H 190.96 -0.77 0.00
H 192.50 0.77 0.00
H 192.50 -0.77 0.00
H 194.04 0.77 0.00
H 194.04 -0.77 0.00
H 195.58 0.77 0.00
H 195.58 -0.77 0.00
H 197.12 0.77 0.00
H 197.12 -0.77 0.00
H 198.66 0.77 0.00
H 198.66 -0.77 0.00
H 200.20 0.77 0.00
H 200.20 -0.77 0.00
H 201.74 0.77 0.00
H 201.74 -0.77 0.00
H 203.28 0.77 0.00
H 203.28 -0.77 0.00
H 204.82 0.77 0.00
H 204.82 -0.77 0.00
H 206.36 0.77 0.00
H 206.36 -0.77 0.00
H 207.90 0.77 0.00
H 207.90 -0.77 0.00
H 209.44 0.77 0.00
H 209.44 -0.77 0.00
H 210.98 0.77 0.00
H 210.98 -0.77 0.00
H 212.52 0.77 0.00
H 212.52 -0.77 0.00
H 214.06 0.77 0.00
H 214.06 -0.77 0.00
H 215.60 0.77 0.00
H 215.60 -0.77 0.00
H 217.14 0.77 0.00
H 217.14 -0.77 0.00
H 218.68 0.77 0.00
H 218.68 -0.77 0.00
H 220.22 0.77 0.00
H 220.22 -0.77 0.00
H 221.76 0.77 0.00
H 221.76 -0.77 0.00
H 223.30 0.77 0.00
H 223.30 -0.77 0.00
H 224.84 0.77 0.00
H 224.84 -0.77 0.00
H 226.38 0.77 0.00
H 226.38 -0.77 0.00
H 227.92 0.77 0.00
H 227.92 -0.77 0.00
H 229.46 0.77 0.00
H 229.46 -0.77 0.00
H 231.00 0.77 0.00
H 231.00 -0.77 0.00
H 232.54 0.77 0.00
H 232.54 -0.77 0.00
H 234.08 0.77 0.00
H 234.08 -0.77 0.00
H 235.62 0.77 0.00
H 235.62 -0.77 0.00
H 237.16 0.77 0.00
H 237.16 -0.77 0.00
H 238.70 0.77 0.00
H 238.70 -0.77 0.00
H 240.24 0.77 0.00
H 240.24 -0.77 0.00
H 241.78 0.77 0.00
H 241.78 -0.77 0.00
H 243.32 0.77 0.00
H 243.32 -0.77 0.00
H 244.86 0.77 0.00
H 244.86 -0.77 0.00
H 246.40 0.77 0.00
H 246.40 -0.77 0.00
H 247.94 0.77 0.00
H 247.94 -0.77 0.00
H 249.48 0.77 0.00
H 249.48 -0.77 0.00
H 251.02 0.77 0.00
H 251.02 -0.77 0.00
H 252.56 0.77 0.00
H 252.56 -0.77 0.00
H 254.10 0.77 0.00
H 254.10 -0.77 0.00
H 255.64 0.77 0.00
H 255.64 -0.77 0.00
H 257.18 0.77 0.00
H 257.18 -0.77 0.00
H 258.72 0.77 0.00
H 258.72 -0.77 0.00
H 260.26 0.77 0.00
H 260.26 -0.77 0.00
H 261.80 0.77 0.00
H 261.80 -0.77 0.00
H 263.34 0.77 0.00
H 263.34 -0.77 0.00
H 264.88 0.77 0.00
H 264.88 -0.77 0.00
H 266.42 0.77 0.00
H 266.42 -0.77 0.00
H 267.96 0.77 0.00
H 267.96 -0.77 0.00
H 269.50 0.77 0.00
H 269.50 -0.77 0.00
H 271.04 0.77 0.00
H 271.04 -0.77 0.00
H 272.58 0.77 0.00
H 272.58 -0.77 0.00
H 274.12 0.77 0.00
H 274.12 -0.77 0.00
H 275.66 0.77 0.00
H 275.66 -0.77 0.00
H 277.20 0.77 0.00
H 277.20 -0.77 0.00
H 278.74 0.77 0.00
H 278.74 -0.77 0.00
H 280.28 0.77 0.00
H 280.28 -0.77 0.00
H 281.82 0.77 0.00
H 281.82 -0.77 0.00
H 283.36 0.77 0.00
H 283.36 -0.77 0.00
H 284.90 0.77 0.00
H 284.90 -0.77 0.00
H 286.44 0.77 0.00
H 286.44 -0.77 0.00
H 287.98 0.77 0.00
H 287.98 -0.77 0.00
H 289.52 0.77 0.00
H 289.52 -0.77 0.00
H 291.06 0.77 0.00
H 291.06 -0.77 0.00
H 292.60 0.77 0.00
H 292.60 -0.77 0.00
H 294.14 0.77 0.00
H 294.14 -0.77 0.00
H 295.68 0.77 0.00
H 295.68 -0.77 0.00
H 297.22 0.77 0.00
H 297.22 -0.77 0.00
H 298.76 0.77 0.00
H 298.76 -0.77 0.00
H 300.30 0.77 0.00
H 300.30 -0.77 0.00
H 301.84 0.77 0.00
H 301.84 -0.77 0.00
H 303.38 0.77 0.00
H 303.38 -0.77 0.00
H 304.92 0.77 0.00
H 304.92 -0.77 0.00
H 306.46 0.77 0.00
H 306.46 -0.77 0.00
H 308.00 0.77 0.00
H 308.00 -0.77 0.00
H 309.54 0.77 0.00
H 309.54 -0.77 0.00
H 311.08 0.77 0.00
H 311.08 -0.77 0.00
H 312.62 0.77 0.00
H 312.62 -0.77 0.00
H 314.16 0.77 0.00
H 314.16 -0.77 0.00
H 315.70 0.77 0.00
H 315.70 -0.77 0.00
H 317.24 0.77 0.00
H 317.24 -0.77 0.00
H 318.78 0.77 0.00
H 318.78 -0.77 0.00
H 320.32 0.77 0.00
H 320.32 -0.77 0.00
H 321.86 0.77 0.00
H 321.86 -0.77 0.00
H 323.40 0.77 0.00
H 323.40 -0.77 0.00
H 324.94 0.77 0.00
H 324.94 -0.77 0.00
H 326.48 0.77 0.00
H 326.48 -0.77 0.00
H 328.02 0.77 0.00
H 328.02 -0.77 0.00
H 329.56 0.77 0.00
H 329.56 -0.77 0.00
H 331.10 0.77 0.00
H 331.10 -0.77 0.00
H 332.64 0.77 0.00
H 332.64 -0.77 0.00
H 334.18 0.77 0.00
H 334.18 -0.77 0.00
H 335.72 0.77 0.00
H 335.72 -0.77 0.00
H 337.26 0.77 0.00
H 337.26 -0.77 0.00
H 338.80 0.77 0.00
H 338.80 -0.77 0.00
H 340.34 0.77 0.00
H 340.34 -0.77 0.00
H 341.88 0.77 0.00
H 341.88 -0.77 0.00
H 343.42 0.77 0.00
H 343.42 -0.77 0.00
H 344.96 0.77 0.00
H 344.96 -0.77 0.00
H 346.50 0.77 0.00
H 346.50 -0.77 0.00
H 348.04 0.77 0.00
H 348.04 -0.77 0.00
H 349.58 0.77 0.00
H 349.58 -0.77 0.00
H 351.12 0.77 0.00
H 351.12 -0.77 0.00
H 352.66 0.77 0.00
H 352.66 -0.77 0.00
H 354.20 0.77 0.00
H 354.20 -0.77 0.00
H 355.74 0.77 0.00
H 355.74 -0.77 0.00
H 357.28 0.77 0.00
H 357.28 -0.77 0.00
H 358.82 0.77 0.00
H 358.82 -0.77 0.00
H 360.36 0.77 0.00
H 360.36 -0.77 0.00
H 361.90 0.77 0.00
H 361.90 -0.77 0.00
H 363.44 0.77 0.00
H 363.44 -0.77 0.00
H 364.98 0.77 0.00
H 364.98 -0.77 0.00
H 366.52 0.77 0.00
H 366.52 -0.77 0.00
H 368.06 0.77 0.00
H 368.06 -0.77 0.00
H 369.60 0.77 0.00
H 369.60 -0.77 0.00
H 371.14 0.77 0.00
H 371.14 -0.77 0.00
H 372.68 0.77 0.00
H 372.68 -0.77 0.00
H 374.22 0.77 0.00
H 374.22 -0.77 0.00
H 375.76 0.77 0.00
H 375.76 -0.77 0.00
H 377.30 0.77 0.00
H 377.30 -0.77 0.00
H 378.84 0.77 0.00
H 378.84 -0.77 0.00
H 380.38 0.77 0.00
H 380.38 -0.77 0.00
H 381.92 0.77 0.00
H 381.92 -0.77 0.00
H 383.46 0.77 0.00
H 383.46 -0.77 0.00
H 385.00 0.77 0.00
H 385.00 -0.77 0.00
H 386.54 0.77 0.00
H 386.54 -0.77 0.00
H 388.08 0.77 0.00
H 388.08 -0.77 0.00
H 389.62 0.77 0.00
H 389.62 -0.77 0.00
H 391.16 0.77 0.00
H 391.16 -0.77 0.00
H 392.70 0.77 0.00
H 392.70 -0.77 0.00
H 394.24 0.77 0.00
H 394.24 -0.77 0.00
H 395.78 0.77 0.00
H 395.78 -0.77 0.00
H 397.32 0.77 0.00
H 397.32 -0.77 0.00
H 398.86 0.77 0.00
H 398.86 -0.77 0.00
H 400.40 0.77 0.00
H 400.40 -0.77 0.00
H 401.94 0.77 0.00
H 401.94 -0.77 0.00
H 403.48 0.77 0.00
H 403.48 -0.77 0.00
H 405.02 0.77 0.00
H 405.02 -0.77 0.00
H 406.56 0.77 0.00
H 406.56 -0.77 0.00
H 408.10 0.77 0.00
H 408.10 -0.77 0.00
H 409.64 0.77 0.00
H 409.64 -0.77 0.00
H 411.18 0.77 0.00
H 411.18 -0.77 0.00
H 412.72 0.77 0.00
H 412.72 -0.77 0.00
H 414.26 0.77 0.00
H 414.26 -0.77 0.00
H 415.80 0.77 0.00
H 415.80 -0.77 0.00
H 417.34 0.77 0.00
H 417.34 -0.77 0.00
H 418.88 0.77 0.00
H 418.88 -0.77 0.00
H 420.42 0.77 0.00
H 420.42 -0.77 0.00
H 421.96 0.77 0.00
H 421.96 -0.77 0.00
H 423.50 0.77 0.00
H 423.50 -0.77 0.00
H 425.04 0.77 0.00
H 425.04 -0.77 0.00
H 426.58 0.77 0.00
H 426.58 -0.77 0.00
H 428.12 0.77 0.00
H 428.12 -0.77 0.00
H 429.66 0.77 0.00
H 429.66 -0.77 0.00
H 431.20 0.77 0.00
H 431.20 -0.77 0.00
H 432.74 0.77 0.00
H 432.74 -0.77 0.00
H 434.28 0.77 0.00
H 434.28 -0.77 0.00
H 435.82 0.77 0.00
H 435.82 -0.77 0.00
H 437.36 0.77 0.00
H 437.36 -0.77 0.00
H 438.90 0.77 0.00
H 438.90 -0.77 0.00
H 440.44 0.77 0.00
H 440.44 -0.77 0.00
H 441.98 0.77 0.00
H 441.98 -0.77 0.00
H 443.52 0.77 0.00
H 443.52 -0.77 0.00
H 445.06 0.77 0.00
H 445.06 -0.77 0.00
H 446.60 0.77 0.00
H 446.60 -0.77 0.00
H 448.14 0.77 0.00
H 448.14 -0.77 0.00
H 449.68 0.77 0.00
H 449.68 -0.77 0.00
H 451.22 0.77 0.00
H 451.22 -0.77 0.00
H 452.76 0.77 0.00
H 452.76 -0.77 0.00
H 454.30 0.77 0.00
H 454.30 -0.77 0.00
H 455.84 0.77 0.00
H 455.84 -0.77 0.00
H 457.38 0.77 0.00
H 457.38 -0.77 0.00
H 458.92 0.77 0.00
H 458.92 -0.77 0.00
H 460.46 0.77 0.00
H 460.46 -0.77 0.00
H 462.00 0.77 0.00
H 462.00 -0.77 0.00
H 463.54 0.77 0.00
H 463.54 -0.77 0.00
H 465.08 0.77 0.00
H 465.08 -0.77 0.00
H 466.62 0.77 0.00
H 466.62 -0.77 0.00
H 468.16 0.77 0.00
H 468.16 -0.77 0.00
H 469.70 0.77 0.00
H 469.70 -0.77 0.00
H 471.24 0.77 0.00
H 471.24 -0.77 0.00
H 472.78 0.77 0.00
H 472.78 -0.77 0.00
H 474.32 0.77 0.00
H 474.32 -0.77 0.00
H 475.86 0.77 0.00
H 475.86 -0.77 0.00
H 477.40 0.77 0.00
H 477.40 -0.77 0.00
H 478.94 0.77 0.00
H 478.94 -0.77 0.00
H 480.48 0.77 0.00
H 480.48 -0.77 0.00
H 482.02 0.77 0.00
H 482.02 -0.77 0.00
H 483.56 0.77 0.00
H 483.56 -0.77 0.00
H 485.10 0.77 0.00
H 485.10 -0.77 0.00
H 486.64 0.77 0.00
H 486.64 -0.77 0.00
H 488.18 0.77 0.00
H 488.18 -0.77 0.00
H 489.72 0.77 0.00
H 489.72 -0.77 0.00
H 491.26 0.77 0.00
H 491.26 -0.77 0.00
H 492.80 0.77 0.00
H 492.80 -0.77 0.00
H 494.34 0.77 0.00
H 494.34 -0.77 0.00
H 495.88 0.77 0.00
H 495.88 -0.77 0.00
H 497.42 0.77 0.00
H 497.42 -0.77 0.00
H 498.96 0.77 0.00
H 498.96 -0.77 0.00
H 500.50 0.77 0.00
H 500.50 -0.77 0.00
H 502.04 0.77 0.00
H 502.04 -0.77 0.00
H 503.58 0.77 0.00
H 503.58 -0.77 0.00
H 505.12 0.77 0.00
H 505.12 -0.77 0.00
H 506.66 0.77 0.00
H 506.66 -0.77 0.00
H 508.20 0.77 0.00
H 508.20 -0.77 0.00
H 509.74 0.77 0.00
H 509.74 -0.77 0.00
H 511.28 0.77 0.00
H 511.28 -0.77 0.00
H 512.82 0.77 0.00
H 512.82 -0.77 0.00
H 514.36 0.77 0.00
H 514.36 -0.77 0.00
H 515.90 0.77 0.00
H 515.90 -0.77 0.00
H 517.44 0.77 0.00
H 517.44 -0.77 0.00
H 518.98 0.77 0.00
H 518.98 -0.77 0.00
H 520.52 0.77 0.00
H 520.52 -0.77 0.00
H 522.06 0.77 0.00
H 522.06 -0.77 0.00
H 523.60 0.77 0.00
H 523.60 -0.77 0.00
H 525.14 0.77 0.00
H 525.14 -0.77 0.00
H 526.68 0.77 0.00
H 526.68 -0.77 0.00
H 528.22 0.77 0.00
H 528.22 -0.77 0.00
H 529.76 0.77 0.00
H 529.76 -0.77 0.00
H 531.30 0.77 0.00
H 531.30 -0.77 0.00
H 532.84 0.77 0.00
H 532.84 -0.77 0.00
H 534.38 0.77 0.00
H 534.38 -0.77 0.00
H 535.92 0.77 0.00
H 535.92 -0.77 0.00
H 537.46 0.77 0.00
H 537.46 -0.77 0.00
H 539.00 0.77 0.00
H 539.00 -0.77 0.00
H 540.54 0.77 0.00
H 540.54 -0.77 0.00
H 542.08 0.77 0.00
H 542.08 -0.77 0.00
H 543.62 0.77 0.00
H 543.62 -0.77 0.00
H 545.16 0.77 0.00
H 545.16 -0.77 0.00
H 546.70 0.77 0.00
H 546.70 -0.77 0.00
H 548.24 0.77 0.00
H 548.24 -0.77 0.00
H 549.78 0.77 0.00
H 549.78 -0.77 0.00
H 551.32 0.77 0.00
H 551.32 -0.77 0.00
H 552.86 0.77 0.00
H 552.86 -0.77 0.00
H 554.40 0.77 0.00
H 554.40 -0.77 0.00
H 555.94 0.77 0.00
H 555.94 -0.77 0.00
H 557.48 0.77 0.00
H 557.48 -0.77 0.00
H 559.02 0.77 0.00
H 559.02 -0.77 0.00
H 560.56 0.77 0.00
H 560.56 -0.77 0.00
H 562.10 0.77 0.00
H 562.10 -0.77 0.00
H 563.64 0.77 0.00
H 563.64 -0.77 0.00
H 565.18 0.77 0.00
H 565.18 -0.77 0.00
H 566.72 0.77 0.00
H 566.72 -0.77 0.00
H 568.26 0.77 0.00
H 568.26 -0.77 0.00
H 569.80 0.77 0.00
H 569.80 -0.77 0.00
H 571.34 0.77 0.00
H 571.34 -0.77 0.00
H 572.88 0.77 0.00
H 572.88 -0.77 0.00
H 574.42 0.77 0.00
H 574.42 -0.77 0.00
H 575.96 0.77 0.00
H 575.96 -0.77 0.00
H 577.50 0.77 0.00
H 577.50 -0.77 0.00
H 579.04 0.77 0.00
H 579.04 -0.77 0.00
H 580.58 0.77 0.00
H 580.58 -0.77 0.00
H 582.12 0.77 0.00
H 582.12 -0.77 0.00
H 583.66 0.77 0.00
H 583.66 -0.77 0.00
H 585.20 0.77 0.00
H 585.20 -0.77 0.00
H 586.74 0.77 0.00
H 586.74 -0.77 0.00
H 588.28 0.77 0.00
H 588.28 -0.77 0.00
H 589.82 0.77 0.00
H 589.82 -0.77 0.00
H 591.36 0.77 0.00
H 591.36 -0.77 0.00
H 592.90 0.77 0.00
H 592.90 -0.77 0.00
H 594.44 0.77 0.00
H 594.44 -0.77 0.00
H 595.98 0.77 0.00
H 595.98 -0.77 0.00
H 597.52 0.77 0.00
H 597.52 -0.77 0.00
H 599.06 0.77 0.00
H 599.06 -0.77 0.00
H 600.60 0.77 0.00
H 600.60 -0.77 0.00
H 602.14 0.77 0.00
H 602.14 -0.77 0.00
H 603.68 0.77 0.00
H 603.68 -0.77 0.00
H 605.22 0.77 0.00
H 605.22 -0.77 0.00
H 606.76 0.77 0.00
H 606.76 -0.77 0.00
H 608.30 0.77 0.00
H 608.30 -0.77 0.00
H 609.84 0.77 0.00
H 609.84 -0.77 0.00
H 611.38 0.77 0.00
H 611.38 -0.77 0.00
H 612.92 0.77 0.00
H 612.92 -0.77 0.00
H 614.46 0.77 0.00
H 614.46 -0.77 0.00
H 616.00 0.77 0.00
H 616.00 -0.77 0.00
H 617.54 0.77 0.00
H 617.54 -0.77 0.00
H 619.08 0.77 0.00
H 619.08 -0.77 0.00
H 620.62 0.77 0.00
H 620.62 -0.77 0.00
H 622.16 0.77 0.00
H 622.16 -0.77 0.00
H 623.70 0.77 0.00
H 623.70 -0.77 0.00
H 625.24 0.77 0.00
H 625.24 -0.77 0.00
H 626.78 0.77 0.00
H 626.78 -0.77 0.00
H 628.32 0.77 0.00
H 628.32 -0.77 0.00
H 629.86 0.77 0.00
H 629.86 -0.77 0.00
H 631.40 0.77 0.00
H 631.40 -0.77 0.00
H 632.94 0.77 0.00
H 632.94 -0.77 0.00
H 634.48 0.77 0.00
H 634.48 -0.77 0.00
H 636.02 0.77 0.00
H 636.02 -0.77 0.00
H 637.56 0.77 0.00
H 637.56 -0.77 0.00
H 639.10 0.77 0.00
H 639.10 -0.77 0.00
H 640.64 0.77 0.00
H 640.64 -0.77 0.00
H 642.18 0.77 0.00
H 642.18 -0.77 0.00
H 643.72 0.77 0.00
H 643.72 -0.77 0.00
H 645.26 0.77 0.00
H 645.26 -0.77 0.00
H 646.80 0.77 0.00
H 646.80 -0.77 0.00
H 648.34 0.77 0.00
H 648.34 -0.77 0.00
H 649.88 0.77 0.00
H 649.88 -0.77 0.00
H 651.42 0.77 0.00
H 651.42 -0.77 0.00
H 652.96 0.77 0.00
H 652.96 -0.77 0.00
H 654.50 0.77 0.00
H 654.50 -0.77 0.00
H 656.04 0.77 0.00
H 656.04 -0.77 0.00
H 657.58 0.77 0.00
H 657.58 -0.77 0.00
H 659.12 0.77 0.00
H 659.12 -0.77 0.00
H 660.66 0.77 0.00
H 660.66 -0.77 0.00
H 662.20 0.77 0.00
H 662.20 -0.77 0.00
H 663.74 0.77 0.00
H 663.74 -0.77 0.00
H 665.28 0.77 0.00
H 665.28 -0.77 0.00
H 666.82 0.77 0.00
H 666.82 -0.77 0.00
H 668.36 0.77 0.00
H 668.36 -0.77 0.00
H 669.90 0.77 0.00
H 669.90 -0.77 0.00
H 671.44 0.77 0.00
H 671.44 -0.77 0.00
H 672.98 0.77 0.00
H 672.98 -0.77 0.00
H 674.52 0.77 0.00
H 674.52 -0.77 0.00
H 676.06 0.77 0.00
H 676.06 -0.77 0.00
H 677.60 0.77 0.00
H 677.60 -0.77 0.00
H 679.14 0.77 0.00
H 679.14 -0.77 0.00
H 680.68 0.77 0.00
H 680.68 -0.77 0.00
H 682.22 0.77 0.00
H 682.22 -0.77 0.00
H 683.76 0.77 0.00
H 683.76 -0.77 0.00
H 685.30 0.77 0.00
H 685.30 -0.77 0.00
H 686.84 0.77 0.00
H 686.84 -0.77 0.00
H 688.38 0.77 0.00
H 688.38 -0.77 0.00
H 689.92 0.77 0.00
H 689.92 -0.77 0.00
H 691.46 0.77 0.00
H 691.46 -0.77 0.00
H 693.00 0.77 0.00
H 693.00 -0.77 0.00
H 694.54 0.77 0.00
H 694.54 -0.77 0.00
H 696.08 0.77 0.00
H 696.08 -0.77 0.00
H 697.62 0.77 0.00
H 697.62 -0.77 0.00
H 699.16 0.77 0.00
H 699.16 -0.77 0.00
H 700.70 0.77 0.00
H 700.70 -0.77 0.00
H 702.24 0.77 0.00
H 702.24 -0.77 0.00
H 703.78 0.77 0.00
H 703.78 -0.77 0.00
H 705.32 0.77 0.00
H 705.32 -0.77 0.00
H 706.86 0.77 0.00
H 706.86 -0.77 0.00
H 708.40 0.77 0.00
H 708.40 -0.77 0.00
H 709.94 0.77 0.00
H 709.94 -0.77 0.00
H 711.48 0.77 0.00
H 711.48 -0.77 0.00
H 713.02 0.77 0.00
H 713.02 -0.77 0.00
H 714.56 0.77 0.00
H 714.56 -0.77 0.00
H 716.10 0.77 0.00
H 716.10 -0.77 0.00
H 717.64 0.77 0.00
H 717.64 -0.77 0.00
H 719.18 0.77 0.00
H 719.18 -0.77 0.00
H 720.72 0.77 0.00
H 720.72 -0.77 0.00
H 722.26 0.77 0.00
H 722.26 -0.77 0.00
H 723.80 0.77 0.00
H 723.80 -0.77 0.00
H 725.34 0.77 0.00
H 725.34 -0.77 0.00
H 726.88 0.77 0.00
H 726.88 -0.77 0.00
H 728.42 0.77 0.00
H 728.42 -0.77 0.00
H 729.96 0.77 0.00
H 729.96 -0.77 0.00
H 731.50 0.77 0.00
H 731.50 -0.77 0.00
H 733.04 0.77 0.00
H 733.04 -0.77 0.00
H 734.58 0.77 0.00
H 734.58 -0.77 0.00
H 736.12 0.77 0.00
H 736.12 -0.77 0.00
H 737.66 0.77 0.00
H 737.66 -0.77 0.00
H 739.20 0.77 0.00
H 739.20 -0.77 0.00
H 740.74 0.77 0.00
H 740.74 -0.77 0.00
H 742.28 0.77 0.00
H 742.28 -0.77 0.00
H 743.82 0.77 0.00
H 743.82 -0.77 0.00
H 745.36 0.77 0.00
H 745.36 -0.77 0.00
H 746.90 0.77 0.00
H 746.90 -0.77 0.00
H 748.44 0.77 0.00
H 748.44 -0.77 0.00
H 749.98 0.77 0.00
H 749.98 -0.77 0.00
H 751.52 0.77 0.00
H 751.52 -0.77 0.00
H 753.06 0.77 0.00
H 753.06 -0.77 0.00
H 754.60 0.77 0.00
H 754.60 -0.77 0.00
H 756.14 0.77 0.00
H 756.14 -0.77 0.00
H 757.68 0.77 0.00
H 757.68 -0.77 0.00
H 759.22 0.77 0.00
H 759.22 -0.77 0.00
H 760.76 0.77 0.00
H 760.76 -0.77 0.00
H 762.30 0.77 0.00
H 762.30 -0.77 0.00
H 763.84 0.77 0.00
H 763.84 -0.77 0.00
H 765.38 0.77 0.00
H 765.38 -0.77 0.00
H 766.92 0.77 0.00
H 766.92 -0.77 0.00
H 768.46 0.77 0.00
H 768.46 -0.77 0.00
H 770.00 0.77 0.00
H 770.00 -0.77 0.00
H 771.54 0.77 0.00
H 771.54 -0.77 0.00
H 773.08 0.77 0.00
H 773.08 -0.77 0.00
H 774.62 0.77 0.00
H 774.62 -0.77 0.00
H 776.16 0.77 0.00
H 776.16 -0.77 0.00
H 777.70 0.77 0.00
H 777.70 -0.77 0.00
H 779.24 0.77 0.00
H 779.24 -0.77 0.00
H 780.78 0.77 0.00
H 780.78 -0.77 0.00
H 782.32 0.77 0.00
H 782.32 -0.77 0.00
H 783.86 0.77 0.00
H 783.86 -0.77 0.00
H 785.40 0.77 0.00
H 785.40 -0.77 0.00
H 787.71 0.77 0.00
H 787.71 -0.77 0.00
