384
Alkane chain with 128 carbons
C 0.00 0.00 0.00
C 1.54 0.00 0.00
C 3.08 0.00 0.00
C 4.62 0.00 0.00
C 6.16 0.00 0.00
C 7.70 0.00 0.00
C 9.24 0.00 0.00
C 10.78 0.00 0.00
C 12.32 0.00 0.00
C 13.86 0.00 0.00
C 15.40 0.00 0.00
C 16.94 0.00 0.00
C 18.48 0.00 0.00
C 20.02 0.00 0.00
C 21.56 0.00 0.00
C 23.10 0.00 0.00
C 24.64 0.00 0.00
C 26.18 0.00 0.00
C 27.72 0.00 0.00
C 29.26 0.00 0.00
C 30.80 0.00 0.00
C 32.34 0.00 0.00
C 33.88 0.00 0.00
C 35.42 0.00 0.00
C 36.96 0.00 0.00
C 38.50 0.00 0.00
C 40.04 0.00 0.00
C 41.58 0.00 0.00
C 43.12 0.00 0.00
C 44.66 0.00 0.00
C 46.20 0.00 0.00
C 47.74 0.00 0.00
C 49.28 0.00 0.00
C 50.82 0.00 0.00
C 52.36 0.00 0.00
C 53.90 0.00 0.00
C 55.44 0.00 0.00
C 56.98 0.00 0.00
C 58.52 0.00 0.00
C 60.06 0.00 0.00
C 61.60 0.00 0.00
C 63.14 0.00 0.00
C 64.68 0.00 0.00
C 66.22 0.00 0.00
C 67.76 0.00 0.00
C 69.30 0.00 0.00
C 70.84 0.00 0.00
C 72.38 0.00 0.00
C 73.92 0.00 0.00
C 75.46 0.00 0.00
C 77.00 0.00 0.00
C 78.54 0.00 0.00
C 80.08 0.00 0.00
C 81.62 0.00 0.00
C 83.16 0.00 0.00
C 84.70 0.00 0.00
C 86.24 0.00 0.00
C 87.78 0.00 0.00
C 89.32 0.00 0.00
C 90.86 0.00 0.00
C 92.40 0.00 0.00
C 93.94 0.00 0.00
C 95.48 0.00 0.00
C 97.02 0.00 0.00
C 98.56 0.00 0.00
C 100.10 0.00 0.00
C 101.64 0.00 0.00
C 103.18 0.00 0.00
C 104.72 0.00 0.00
C 106.26 0.00 0.00
C 107.80 0.00 0.00
C 109.34 0.00 0.00
C 110.88 0.00 0.00
C 112.42 0.00 0.00
C 113.96 0.00 0.00
C 115.50 0.00 0.00
C 117.04 0.00 0.00
C 118.58 0.00 0.00
C 120.12 0.00 0.00
C 121.66 0.00 0.00
C 123.20 0.00 0.00
C 124.74 0.00 0.00
C 126.28 0.00 0.00
C 127.82 0.00 0.00
C 129.36 0.00 0.00
C 130.90 0.00 0.00
C 132.44 0.00 0.00
C 133.98 0.00 0.00
C 135.52 0.00 0.00
C 137.06 0.00 0.00
C 138.60 0.00 0.00
C 140.14 0.00 0.00
C 141.68 0.00 0.00
C 143.22 0.00 0.00
C 144.76 0.00 0.00
C 146.30 0.00 0.00
C 147.84 0.00 0.00
C 149.38 0.00 0.00
C 150.92 0.00 0.00
C 152.46 0.00 0.00
C 154.00 0.00 0.00
C 155.54 0.00 0.00
C 157.08 0.00 0.00
C 158.62 0.00 0.00
C 160.16 0.00 0.00
C 161.70 0.00 0.00
C 163.24 0.00 0.00
C 164.78 0.00 0.00
C 166.32 0.00 0.00
C 167.86 0.00 0.00
C 169.40 0.00 0.00
C 170.94 0.00 0.00
C 172.48 0.00 0.00
C 174.02 0.00 0.00
C 175.56 0.00 0.00
C 177.10 0.00 0.00
C 178.64 0.00 0.00
C 180.18 0.00 0.00
C 181.72 0.00 0.00
C 183.26 0.00 0.00
C 184.80 0.00 0.00
C 186.34 0.00 0.00
C 187.88 0.00 0.00
C 189.42 0.00 0.00
C 190.96 0.00 0.00
C 192.50 0.00 0.00
C 194.04 0.00 0.00
C 195.58 0.00 0.00
H -0.77 0.77 0.00
H -0.77 -0.77 0.00
H 1.54 0.77 0.00
H 1.54 -0.77 0.00
H 3.08 0.77 0.00
H 3.08 -0.77 0.00
H 4.62 0.77 0.00
H 4.62 -0.77 0.00
H 6.16 0.77 0.00
H 6.16 -0.77 0.00
H 7.70 0.77 0.00
H 7.70 -0.77 0.00
H 9.24 0.77 0.00
H 9.24 -0.77 0.00
H 10.78 0.77 0.00
H 10.78 -0.77 0.00
H 12.32 0.77 0.00
H 12.32 -0.77 0.00
H 13.86 0.77 0.00
H 13.86 -0.77 0.00
H 15.40 0.77 0.00
H 15.40 -0.77 0.00
H 16.94 0.77 0.00
H 16.94 -0.77 0.00
H 18.48 0.77 0.00
H 18.48 -0.77 0.00
H 20.02 0.77 0.00
H 20.02 -0.77 0.00
H 21.56 0.77 0.00
H 21.56 -0.77 0.00
H 23.10 0.77 0.00
H 23.10 -0.77 0.00
H 24.64 0.77 0.00
H 24.64 -0.77 0.00
H 26.18 0.77 0.00
H 26.18 -0.77 0.00
H 27.72 0.77 0.00
H 27.72 -0.77 0.00
H 29.26 0.77 0.00
H 29.26 -0.77 0.00
H 30.80 0.77 0.00
H 30.80 -0.77 0.00
H 32.34 0.77 0.00
H 32.34 -0.77 0.00
H 33.88 0.77 0.00
H 33.88 -0.77 0.00
H 35.42 0.77 0.00
H 35.42 -0.77 0.00
H 36.96 0.77 0.00
H 36.96 -0.77 0.00
H 38.50 0.77 0.00
H 38.50 -0.77 0.00
H 40.04 0.77 0.00
H 40.04 -0.77 0.00
H 41.58 0.77 0.00
H 41.58 -0.77 0.00
H 43.12 0.77 0.00
H 43.12 -0.77 0.00
H 44.66 0.77 0.00
H 44.66 -0.77 0.00
H 46.20 0.77 0.00
H 46.20 -0.77 0.00
H 47.74 0.77 0.00
H 47.74 -0.77 0.00
H 49.28 0.77 0.00
H 49.28 -0.77 0.00
H 50.82 0.77 0.00
H 50.82 -0.77 0.00
H 52.36 0.77 0.00
H 52.36 -0.77 0.00
H 53.90 0.77 0.00
H 53.90 -0.77 0.00
H 55.44 0.77 0.00
H 55.44 -0.77 0.00
H 56.98 0.77 0.00
H 56.98 -0.77 0.00
H 58.52 0.77 0.00
H 58.52 -0.77 0.00
H 60.06 0.77 0.00
H 60.06 -0.77 0.00
H 61.60 0.77 0.00
H 61.60 -0.77 0.00
H 63.14 0.77 0.00
H 63.14 -0.77 0.00
H 64.68 0.77 0.00
H 64.68 -0.77 0.00
H 66.22 0.77 0.00
H 66.22 -0.77 0.00
H 67.76 0.77 0.00
H 67.76 -0.77 0.00
H 69.30 0.77 0.00
H 69.30 -0.77 0.00
H 70.84 0.77 0.00
H 70.84 -0.77 0.00
H 72.38 0.77 0.00
H 72.38 -0.77 0.00
H 73.92 0.77 0.00
H 73.92 -0.77 0.00
H 75.46 0.77 0.00
H 75.46 -0.77 0.00
H 77.00 0.77 0.00
H 77.00 -0.77 0.00
H 78.54 0.77 0.00
H 78.54 -0.77 0.00
H 80.08 0.77 0.00
H 80.08 -0.77 0.00
H 81.62 0.77 0.00
H 81.62 -0.77 0.00
H 83.16 0.77 0.00
H 83.16 -0.77 0.00
H 84.70 0.77 0.00
H 84.70 -0.77 0.00
H 86.24 0.77 0.00
H 86.24 -0.77 0.00
H 87.78 0.77 0.00
H 87.78 -0.77 0.00
H 89.32 0.77 0.00
H 89.32 -0.77 0.00
H 90.86 0.77 0.00
H 90.86 -0.77 0.00
H 92.40 0.77 0.00
H 92.40 -0.77 0.00
H 93.94 0.77 0.00
H 93.94 -0.77 0.00
H 95.48 0.77 0.00
H 95.48 -0.77 0.00
H 97.02 0.77 0.00
H 97.02 -0.77 0.00
H 98.56 0.77 0.00
H 98.56 -0.77 0.00
H 100.10 0.77 0.00
H 100.10 -0.77 0.00
H 101.64 0.77 0.00
H 101.64 -0.77 0.00
H 103.18 0.77 0.00
H 103.18 -0.77 0.00
H 104.72 0.77 0.00
H 104.72 -0.77 0.00
H 106.26 0.77 0.00
H 106.26 -0.77 0.00
H 107.80 0.77 0.00
H 107.80 -0.77 0.00
H 109.34 0.77 0.00
H 109.34 -0.77 0.00
H 110.88 0.77 0.00
H 110.88 -0.77 0.00
H 112.42 0.77 0.00
H 112.42 -0.77 0.00
H 113.96 0.77 0.00
H 113.96 -0.77 0.00
H 115.50 0.77 0.00
H 115.50 -0.77 0.00
H 117.04 0.77 0.00
H 117.04 -0.77 0.00
H 118.58 0.77 0.00
H 118.58 -0.77 0.00
H 120.12 0.77 0.00
H 120.12 -0.77 0.00
H 121.66 0.77 0.00
H 121.66 -0.77 0.00
H 123.20 0.77 0.00
H 123.20 -0.77 0.00
H 124.74 0.77 0.00
H 124.74 -0.77 0.00
H 126.28 0.77 0.00
H 126.28 -0.77 0.00
H 127.82 0.77 0.00
H 127.82 -0.77 0.00
H 129.36 0.77 0.00
H 129.36 -0.77 0.00
H 130.90 0.77 0.00
H 130.90 -0.77 0.00
H 132.44 0.77 0.00
H 132.44 -0.77 0.00
H 133.98 0.77 0.00
H 133.98 -0.77 0.00
H 135.52 0.77 0.00
H 135.52 -0.77 0.00
H 137.06 0.77 0.00
H 137.06 -0.77 0.00
H 138.60 0.77 0.00
H 138.60 -0.77 0.00
H 140.14 0.77 0.00
H 140.14 -0.77 0.00
H 141.68 0.77 0.00
H 141.68 -0.77 0.00
H 143.22 0.77 0.00
H 143.22 -0.77 0.00
H 144.76 0.77 0.00
H 144.76 -0.77 0.00
H 146.30 0.77 0.00
H 146.30 -0.77 0.00
H 147.84 0.77 0.00
H 147.84 -0.77 0.00
H 149.38 0.77 0.00
H 149.38 -0.77 0.00
H 150.92 0.77 0.00
H 150.92 -0.77 0.00
H 152.46 0.77 0.00
H 152.46 -0.77 0.00
H 154.00 0.77 0.00
H 154.00 -0.77 0.00
H 155.54 0.77 0.00
H 155.54 -0.77 0.00
H 157.08 0.77 0.00
H 157.08 -0.77 0.00
H 158.62 0.77 0.00
H 158.62 -0.77 0.00
H 160.16 0.77 0.00
H 160.16 -0.77 0.00
H 161.70 0.77 0.00
H 161.70 -0.77 0.00
H 163.24 0.77 0.00
H 163.24 -0.77 0.00
H 164.78 0.77 0.00
H 164.78 -0.77 0.00
H 166.32 0.77 0.00
H 166.32 -0.77 0.00
H 167.86 0.77 0.00
H 167.86 -0.77 0.00
H 169.40 0.77 0.00
H 169.40 -0.77 0.00
H 170.94 0.77 0.00
H 170.94 -0.77 0.00
H 172.48 0.77 0.00
H 172.48 -0.77 0.00
H 174.02 0.77 0.00
H 174.02 -0.77 0.00
H 175.56 0.77 0.00
H 175.56 -0.77 0.00
H 177.10 0.77 0.00
H 177.10 -0.77 0.00
H 178.64 0.77 0.00
H 178.64 -0.77 0.00
H 180.18 0.77 0.00
H 180.18 -0.77 0.00
H 181.72 0.77 0.00
H 181.72 -0.77 0.00
H 183.26 0.77 0.00
H 183.26 -0.77 0.00
H 184.80 0.77 0.00
H 184.80 -0.77 0.00
H 186.34 0.77 0.00
H 186.34 -0.77 0.00
H 187.88 0.77 0.00
H 187.88 -0.77 0.00
H 189.42 0.77 0.00
H 189.42 -0.77 0.00
H 190.96 0.77 0.00
H 190.96 -0.77 0.00
H 192.50 0.77 0.00
H 192.50 -0.77 0.00
H 194.04 0.77 0.00
H 194.04 -0.77 0.00
H 196.35 0.77 0.00
H 196.35 -0.77 0.00
